
**** 12/09/22 15:02:56 ******* PSpice Lite (March 2016) ******* ID# 10813 ****

 ** Profile: "lab2-lab 2 dc"  [ c:\users\finn\documents\github\master-thl-aic\lab_1\project01-jansen-rautenberg-PSpiceFiles\lab2\lab 


 ****     CIRCUIT DESCRIPTION


******************************************************************************




** Creating circuit file "lab 2 dc.cir" 
** WARNING: THIS AUTOMATICALLY GENERATED FILE MAY BE OVERWRITTEN BY SUBSEQUENT SIMULATIONS

*Libraries: 
* Profile Libraries :
* Local Libraries :
.LIB "c:/users/finn/documents/github/master-thl-aic/pspice_models/tsmc_250nm.lib" 
* From [PSPICE NETLIST] section of C:\Users\Finn\AppData\Roaming\SPB_Data\cdssetup\OrCAD_PSpice\17.2.0\PSpice.ini file:
.lib "nomd.lib" 

*Analysis directives: 
.OP
.TF V([OUT]) V_Vt
.OPTIONS ADVCONV
.PROBE64 V(alias(*)) I(alias(*)) W(alias(*)) D(alias(*)) NOISE(alias(*)) 
.INC "..\lab2.net" 



**** INCLUDING lab2.net ****
* source PROJECT01-JANSEN-RAUTENBERG
V_VDDC         VCC 0 3.3Vdc
M_M2         IN IN 0 0 nmos_tsmc  
+ L=250n  
+ W=1u          
+ M=1
M_M1         OUT IN 0 0 nmos_tsmc  
+ L=250n  
+ W=1u          
+ M=1
I_I1         VCC IN DC 50uAdc  
V_Vt         OUT 0 DC 1.5Vdc AC 1Vac 

**** RESUMING "lab 2 dc.cir" ****
.END

**** 12/09/22 15:02:56 ******* PSpice Lite (March 2016) ******* ID# 10813 ****

 ** Profile: "lab2-lab 2 dc"  [ c:\users\finn\documents\github\master-thl-aic\lab_1\project01-jansen-rautenberg-PSpiceFiles\lab2\lab 


 ****     MOSFET MODEL PARAMETERS


******************************************************************************




               nmos_tsmc       
               NMOS            
       LEVEL    3            
           L  100.000000E-06 
           W  100.000000E-06 
          LD   31.622780E-12 
          WD   12.328810E-09 
         VTO     .423825     
          KP  250.104800E-06 
       GAMMA     .431731     
         PHI     .7          
      LAMBDA    0            
         RSH    4.062439E-03 
          IS   10.000000E-15 
          JS    0            
          PB     .5          
        PBSW     .5          
          CJ    1.812110E-03 
        CJSW  534.133700E-12 
          MJ     .328255     
        MJSW     .5          
        CGSO  620.000000E-12 
        CGDO  620.000000E-12 
        CGBO  100.000000E-12 
        NSUB  100.000000E+15 
         NFS    1.000000E+12 
         TOX    5.700000E-09 
          XJ  300.000000E-09 
          UO  425.6467       
       UCRIT   10.000000E+03 
        VMAX   82.878510E+03 
       DELTA    0            
       THETA     .175405     
         ETA    0            
       KAPPA     .168678     
      DIOMOD    1            
         VFB    0            
        LETA    0            
        WETA    0            
          U0    0            
        TEMP    0            
         VDD    5            
       XPART    0            


**** 12/09/22 15:02:56 ******* PSpice Lite (March 2016) ******* ID# 10813 ****

 ** Profile: "lab2-lab 2 dc"  [ c:\users\finn\documents\github\master-thl-aic\lab_1\project01-jansen-rautenberg-PSpiceFiles\lab2\lab 


 ****     SMALL SIGNAL BIAS SOLUTION       TEMPERATURE =   27.000 DEG C


******************************************************************************



 NODE   VOLTAGE     NODE   VOLTAGE     NODE   VOLTAGE     NODE   VOLTAGE


(   IN)     .7159  (  OUT)    1.5000  (  VCC)    3.3000  




    VOLTAGE SOURCE CURRENTS
    NAME         CURRENT

    V_VDDC      -5.000E-05
    V_Vt        -5.495E-05

    TOTAL POWER DISSIPATION   2.47E-04  WATTS


**** 12/09/22 15:02:56 ******* PSpice Lite (March 2016) ******* ID# 10813 ****

 ** Profile: "lab2-lab 2 dc"  [ c:\users\finn\documents\github\master-thl-aic\lab_1\project01-jansen-rautenberg-PSpiceFiles\lab2\lab 


 ****     OPERATING POINT INFORMATION      TEMPERATURE =   27.000 DEG C


******************************************************************************






**** MOSFETS


NAME         M_M2        M_M1      
MODEL        nmos_tsmc   nmos_tsmc 
ID           5.00E-05    5.49E-05 
VGS          7.16E-01    7.16E-01 
VDS          7.16E-01    1.50E+00 
VBS          0.00E+00    0.00E+00 
VTH          3.28E-01    3.28E-01 
VDSAT        2.62E-01    2.62E-01 
Lin0/Sat1   -1.00E+00   -1.00E+00 
if          -1.00E+00   -1.00E+00 
ir          -1.00E+00   -1.00E+00 
TAU         -1.00E+00   -1.00E+00 
GM           1.81E-04    2.00E-04 
GDS          7.54E-06    5.59E-06 
GMB          1.51E-05    1.67E-05 
CBD          0.00E+00    0.00E+00 
CBS          0.00E+00    0.00E+00 
CGSOV        6.05E-16    6.05E-16 
CGDOV        6.05E-16    6.05E-16 
CGBOV        2.50E-17    2.50E-17 
CGS          9.85E-16    9.85E-16 
CGD          0.00E+00    0.00E+00 
CGB          0.00E+00    0.00E+00 




 ****     SMALL-SIGNAL CHARACTERISTICS


      V(OUT)/V_Vt =  1.000E+00

      INPUT RESISTANCE AT V_Vt =  1.788E+05

      OUTPUT RESISTANCE AT V(OUT) =  0.000E+00


          JOB CONCLUDED

**** 12/09/22 15:02:56 ******* PSpice Lite (March 2016) ******* ID# 10813 ****

 ** Profile: "lab2-lab 2 dc"  [ c:\users\finn\documents\github\master-thl-aic\lab_1\project01-jansen-rautenberg-PSpiceFiles\lab2\lab 


 ****     JOB STATISTICS SUMMARY


******************************************************************************



  Total job time (using Solver 1)   =         .02
