
**** 01/06/23 15:54:45 ******* PSpice Lite (March 2016) ******* ID# 10813 ****

 ** Profile: "lab3 optimzed-dc sweep"  [ c:\users\finn\documents\github\master-thl-aic\lab_3\pspice\lab3-cascode-comparisson-PSpiceFi


 ****     CIRCUIT DESCRIPTION


******************************************************************************




** Creating circuit file "dc sweep.cir" 
** WARNING: THIS AUTOMATICALLY GENERATED FILE MAY BE OVERWRITTEN BY SUBSEQUENT SIMULATIONS

*Libraries: 
* Profile Libraries :
* Local Libraries :
.LIB "../../../MovedFiles/tsmc_250nm.lib" 
* From [PSPICE NETLIST] section of C:\Users\Finn\AppData\Roaming\SPB_Data\cdssetup\OrCAD_PSpice\17.2.0\PSpice.ini file:
.lib "nomd.lib" 

*Analysis directives: 
.DC LIN V_VDCout 0 3 0.01 
.OPTIONS ADVCONV
.PROBE64 V(alias(*)) I(alias(*)) W(alias(*)) D(alias(*)) NOISE(alias(*)) 
.INC "..\lab3 optimzed.net" 



**** INCLUDING "lab3 optimzed.net" ****
* source LAB3-CASCODE-COMPARISSON
M_M1         N01997 N02197 0 0 nmos_tsmc  
+ L={L_var}  
+ W={W_var}          
+ M=1
I_I1         VCC N02197 DC 10u  
M_M3         N02197 BIASTOP N01997 N01997 nmos_tsmc  
+ L={L_var}  
+ W={W_var}          
+ M=1
M_M2         N00169 N02197 0 0 nmos_tsmc  
+ L={L_var}  
+ W={W_var}          
+ M=1
V_VDDC         VCC 0 3.3Vdc
M_M4         VOUTPUT BIASTOP N00169 N00169 nmos_tsmc  
+ L={L_var}  
+ W={W_var}          
+ M=1
V_VDCout         VOUTPUT 0 {Vout}
I_I2         VCC BIASTOP DC 10u  
M_M5         BIASTOP BIASTOP N03222 N03222 nmos_tsmc  
+ L={L_var}  
+ W={W_var}          
+ M=1
M_M6         N03222 BIASTOP 0 0 nmos_tsmc  
+ L={L_var}  
+ W=450n          
+ M=1
.PARAM  l_var=250n vout=1.5vdc w_var=1u

**** RESUMING "dc sweep.cir" ****
.END

**** 01/06/23 15:54:45 ******* PSpice Lite (March 2016) ******* ID# 10813 ****

 ** Profile: "lab3 optimzed-dc sweep"  [ c:\users\finn\documents\github\master-thl-aic\lab_3\pspice\lab3-cascode-comparisson-PSpiceFi


 ****     MOSFET MODEL PARAMETERS


******************************************************************************




               nmos_tsmc       
               NMOS            
       LEVEL    3            
           L  100.000000E-06 
           W  100.000000E-06 
          LD   31.622780E-12 
          WD   12.328810E-09 
         VTO     .423825     
          KP  250.104800E-06 
       GAMMA     .431731     
         PHI     .7          
      LAMBDA    0            
         RSH    4.062439E-03 
          IS   10.000000E-15 
          JS    0            
          PB     .5          
        PBSW     .5          
          CJ    1.812110E-03 
        CJSW  534.133700E-12 
          MJ     .328255     
        MJSW     .5          
        CGSO  620.000000E-12 
        CGDO  620.000000E-12 
        CGBO  100.000000E-12 
        NSUB  100.000000E+15 
         NFS    1.000000E+12 
         TOX    5.700000E-09 
          XJ  300.000000E-09 
          UO  425.6467       
       UCRIT   10.000000E+03 
        VMAX   82.878510E+03 
       DELTA    0            
       THETA     .175405     
         ETA    0            
       KAPPA     .168678     
      DIOMOD    1            
         VFB    0            
        LETA    0            
        WETA    0            
          U0    0            
        TEMP    0            
         VDD    5            
       XPART    0            



          JOB CONCLUDED

**** 01/06/23 15:54:45 ******* PSpice Lite (March 2016) ******* ID# 10813 ****

 ** Profile: "lab3 optimzed-dc sweep"  [ c:\users\finn\documents\github\master-thl-aic\lab_3\pspice\lab3-cascode-comparisson-PSpiceFi


 ****     JOB STATISTICS SUMMARY


******************************************************************************



  Total job time (using Solver 1)   =         .02
